
     RDKit          3D

 45 48  0  0  0  0  0  0  0  0999 V2000
   46.0056    1.9441    8.1305 C   0  0  0  0  0  0  0  0  0  0  0  0
   45.0989    1.7075    9.1467 C   0  0  0  0  0  0  0  0  0  0  0  0
   44.3471    2.6793    9.7240 N   0  0  0  0  0  0  0  0  0  0  0  0
   44.4832    3.9462    9.2855 C   0  0  0  0  0  0  0  0  0  0  0  0
   43.7062    5.0109    9.8007 N   0  0  0  0  0  0  0  0  0  0  0  0
   43.6211    5.4258   11.2195 C   0  0  0  0  0  0  0  0  0  0  0  0
   42.5414    6.3706   11.7112 C   0  0  0  0  0  0  0  0  0  0  0  0
   42.5317    4.9364   12.1525 C   0  0  0  0  0  0  0  0  0  0  0  0
   45.0211    5.6206   11.8089 C   0  0  0  0  0  0  0  0  0  0  0  0
   45.9169    6.5717   11.2873 C   0  0  0  0  0  0  0  0  0  0  0  0
   47.1846    6.7659   11.8422 C   0  0  0  0  0  0  0  0  0  0  0  0
   47.5888    6.0087   12.9398 C   0  0  0  0  0  0  0  0  0  0  0  0
   46.7201    5.0543   13.4790 C   0  0  0  0  0  0  0  0  0  0  0  0
   45.4448    4.8786   12.9259 C   0  0  0  0  0  0  0  0  0  0  0  0
   47.0999    4.2317   14.6574 C   0  0  0  0  0  0  0  0  0  0  0  0
   47.4730    3.0756   14.4984 O   0  0  0  0  0  0  0  0  0  0  0  0
   47.0358    4.8748   15.8777 N   0  0  0  0  0  0  0  0  0  0  0  0
   47.3065    4.2468   17.0519 C   0  0  0  0  0  0  0  0  0  0  0  0
   46.6216    3.2310   17.4304 N   0  0  0  0  0  0  0  0  0  0  0  0
   45.3686    4.2559    8.2452 C   0  0  0  0  0  0  0  0  0  0  0  0
   46.1526    3.2522    7.6656 C   0  0  0  0  0  0  0  0  0  0  0  0
   46.7826    0.8297    7.5436 C   0  0  0  0  0  0  0  0  0  0  0  0
   46.5896   -0.3344    7.8671 O   0  0  0  0  0  0  0  0  0  0  0  0
   47.7363    1.1696    6.6110 N   0  0  0  0  0  0  0  0  0  0  0  0
   48.2197    2.5275    6.4829 C   0  0  0  0  0  0  0  0  0  0  0  0
   47.0763    3.5398    6.5130 C   0  0  0  0  0  0  0  0  0  0  0  0
   44.9375    0.7071    9.5397 H   0  0  0  0  0  0  0  0  0  0  0  0
   43.7530    5.7932    9.1547 H   0  0  0  0  0  0  0  0  0  0  0  0
   42.7959    7.1218   12.4498 H   0  0  0  0  0  0  0  0  0  0  0  0
   41.7785    6.6987   11.0163 H   0  0  0  0  0  0  0  0  0  0  0  0
   42.7677    4.7383   13.1914 H   0  0  0  0  0  0  0  0  0  0  0  0
   41.7567    4.2881   11.7635 H   0  0  0  0  0  0  0  0  0  0  0  0
   45.6140    7.1772   10.4343 H   0  0  0  0  0  0  0  0  0  0  0  0
   47.8484    7.5179   11.4216 H   0  0  0  0  0  0  0  0  0  0  0  0
   48.5633    6.2008   13.3800 H   0  0  0  0  0  0  0  0  0  0  0  0
   44.7601    4.1538   13.3668 H   0  0  0  0  0  0  0  0  0  0  0  0
   46.8307    5.8601   15.9035 H   0  0  0  0  0  0  0  0  0  0  0  0
   48.1394    4.6528   17.6480 H   0  0  0  0  0  0  0  0  0  0  0  0
   45.8917    2.9926   16.7591 H   0  0  0  0  0  0  0  0  0  0  0  0
   45.4296    5.2758    7.8761 H   0  0  0  0  0  0  0  0  0  0  0  0
   48.3260    0.3966    6.3240 H   0  0  0  0  0  0  0  0  0  0  0  0
   48.7838    2.6033    5.5484 H   0  0  0  0  0  0  0  0  0  0  0  0
   48.9095    2.7032    7.3168 H   0  0  0  0  0  0  0  0  0  0  0  0
   47.4889    4.5520    6.5876 H   0  0  0  0  0  0  0  0  0  0  0  0
   46.4954    3.4763    5.5847 H   0  0  0  0  0  0  0  0  0  0  0  0
  1  2  2  0
  2  3  1  0
  3  4  2  0
  4  5  1  0
  5  6  1  0
  6  7  1  0
  7  8  1  0
  6  9  1  0
  9 10  2  0
 10 11  1  0
 11 12  2  0
 12 13  1  0
 13 14  2  0
 13 15  1  0
 15 16  2  0
 15 17  1  0
 17 18  1  0
 18 19  2  3
  4 20  1  0
 20 21  2  0
  1 22  1  0
 22 23  2  0
 22 24  1  0
 24 25  1  0
 25 26  1  0
  1 21  1  0
  8  6  1  0
  9 14  1  0
 26 21  1  0
  2 27  1  0
  5 28  1  0
  7 29  1  0
  7 30  1  0
  8 31  1  0
  8 32  1  0
 10 33  1  0
 11 34  1  0
 12 35  1  0
 14 36  1  0
 17 37  1  0
 18 38  1  0
 19 39  1  0
 20 40  1  0
 24 41  1  0
 25 42  1  0
 25 43  1  0
 26 44  1  0
 26 45  1  0
M  END
>  <SMILES>  (1) 
C=1(C=NC(NC2(CC2)C=3C=CC=C(C=3)C(=O)NC=N)=CC=14)C(=O)NCC4

>  <SELFIE>  (1) 
[C][Branch2][Ring2][Branch1][C][=N][C][Branch2][Ring1][#Branch2][N][C][Branch1][Branch1][C][C][Ring1][Ring1][C][C][=C][C][=C][Branch1][Ring2][C][=Ring1][=Branch1][C][=Branch1][C][=O][N][C][=N][=C][C][=Ring2][Ring1][Branch1][C][=Branch1][C][=O][N][C][C][Ring1][=Branch1]

>  <docking_score>  (1) 
-11.206

$$$$

     RDKit          3D

 45 48  0  0  0  0  0  0  0  0999 V2000
   46.7816    2.8485    7.6554 C   0  0  0  0  0  0  0  0  0  0  0  0
   46.7584    4.2303    7.6262 C   0  0  0  0  0  0  0  0  0  0  0  0
   45.8243    4.9796    8.2656 N   0  0  0  0  0  0  0  0  0  0  0  0
   44.8657    4.3496    8.9729 C   0  0  0  0  0  0  0  0  0  0  0  0
   43.8816    5.0550    9.7056 N   0  0  0  0  0  0  0  0  0  0  0  0
   43.7018    5.0341   11.1751 C   0  0  0  0  0  0  0  0  0  0  0  0
   42.4178    5.5076   11.8287 C   0  0  0  0  0  0  0  0  0  0  0  0
   42.7824    4.0528   11.8743 C   0  0  0  0  0  0  0  0  0  0  0  0
   45.0077    5.4061   11.8832 C   0  0  0  0  0  0  0  0  0  0  0  0
   45.7660    6.5256   11.4950 C   0  0  0  0  0  0  0  0  0  0  0  0
   46.9441    6.8785   12.1585 C   0  0  0  0  0  0  0  0  0  0  0  0
   47.3944    6.1151   13.2336 C   0  0  0  0  0  0  0  0  0  0  0  0
   46.6621    4.9954   13.6413 C   0  0  0  0  0  0  0  0  0  0  0  0
   45.4733    4.6594   12.9802 C   0  0  0  0  0  0  0  0  0  0  0  0
   47.0938    4.1577   14.7908 C   0  0  0  0  0  0  0  0  0  0  0  0
   47.5381    3.0333   14.5921 O   0  0  0  0  0  0  0  0  0  0  0  0
   46.9910    4.7527   16.0326 N   0  0  0  0  0  0  0  0  0  0  0  0
   47.3017    4.1023   17.1846 C   0  0  0  0  0  0  0  0  0  0  0  0
   46.6953    3.0226   17.5172 N   0  0  0  0  0  0  0  0  0  0  0  0
   44.8394    2.9520    9.0626 C   0  0  0  0  0  0  0  0  0  0  0  0
   45.7956    2.1850    8.3878 C   0  0  0  0  0  0  0  0  0  0  0  0
   47.8397    2.1005    6.9405 C   0  0  0  0  0  0  0  0  0  0  0  0
   48.7690    2.6683    6.3825 O   0  0  0  0  0  0  0  0  0  0  0  0
   47.7264    0.7287    6.9357 N   0  0  0  0  0  0  0  0  0  0  0  0
   46.4806    0.0709    7.2662 C   0  0  0  0  0  0  0  0  0  0  0  0
   45.8278    0.6850    8.5030 C   0  0  0  0  0  0  0  0  0  0  0  0
   47.5074    4.7976    7.0798 H   0  0  0  0  0  0  0  0  0  0  0  0
   43.7709    5.9794    9.2997 H   0  0  0  0  0  0  0  0  0  0  0  0
   42.4743    6.0690   12.7540 H   0  0  0  0  0  0  0  0  0  0  0  0
   41.5912    5.8099   11.1978 H   0  0  0  0  0  0  0  0  0  0  0  0
   43.0687    3.6459   12.8369 H   0  0  0  0  0  0  0  0  0  0  0  0
   42.1989    3.3617   11.2793 H   0  0  0  0  0  0  0  0  0  0  0  0
   45.4243    7.1375   10.6614 H   0  0  0  0  0  0  0  0  0  0  0  0
   47.5005    7.7572   11.8399 H   0  0  0  0  0  0  0  0  0  0  0  0
   48.2920    6.4275   13.7599 H   0  0  0  0  0  0  0  0  0  0  0  0
   44.8905    3.8027   13.3191 H   0  0  0  0  0  0  0  0  0  0  0  0
   46.7249    5.7218   16.0924 H   0  0  0  0  0  0  0  0  0  0  0  0
   48.0963    4.5482   17.8039 H   0  0  0  0  0  0  0  0  0  0  0  0
   45.9908    2.7547   16.8301 H   0  0  0  0  0  0  0  0  0  0  0  0
   44.0853    2.4662    9.6752 H   0  0  0  0  0  0  0  0  0  0  0  0
   48.3985    0.2618    6.3374 H   0  0  0  0  0  0  0  0  0  0  0  0
   46.6856   -0.9928    7.4204 H   0  0  0  0  0  0  0  0  0  0  0  0
   45.8226    0.1721    6.3951 H   0  0  0  0  0  0  0  0  0  0  0  0
   44.8159    0.2813    8.6183 H   0  0  0  0  0  0  0  0  0  0  0  0
   46.4033    0.4229    9.3994 H   0  0  0  0  0  0  0  0  0  0  0  0
  1  2  2  0
  2  3  1  0
  3  4  2  0
  4  5  1  0
  5  6  1  0
  6  7  1  0
  7  8  1  0
  6  9  1  0
  9 10  2  0
 10 11  1  0
 11 12  2  0
 12 13  1  0
 13 14  2  0
 13 15  1  0
 15 16  2  0
 15 17  1  0
 17 18  1  0
 18 19  2  3
  4 20  1  0
 20 21  2  0
  1 22  1  0
 22 23  2  0
 22 24  1  0
 24 25  1  0
 25 26  1  0
  1 21  1  0
  8  6  1  0
  9 14  1  0
 26 21  1  0
  2 27  1  0
  5 28  1  0
  7 29  1  0
  7 30  1  0
  8 31  1  0
  8 32  1  0
 10 33  1  0
 11 34  1  0
 12 35  1  0
 14 36  1  0
 17 37  1  0
 18 38  1  0
 19 39  1  0
 20 40  1  0
 24 41  1  0
 25 42  1  0
 25 43  1  0
 26 44  1  0
 26 45  1  0
M  END
>  <SMILES>  (2) 
C=1(C=NC(NC2(CC2)C=3C=CC=C(C=3)C(=O)NC=N)=CC=14)C(=O)NCC4

>  <SELFIE>  (2) 
[C][Branch2][Ring2][Branch1][C][=N][C][Branch2][Ring1][#Branch2][N][C][Branch1][Branch1][C][C][Ring1][Ring1][C][C][=C][C][=C][Branch1][Ring2][C][=Ring1][=Branch1][C][=Branch1][C][=O][N][C][=N][=C][C][=Ring2][Ring1][Branch1][C][=Branch1][C][=O][N][C][C][Ring1][=Branch1]

>  <docking_score>  (2) 
-9.4760000000000009

$$$$

     RDKit          3D

 45 48  0  0  0  0  0  0  0  0999 V2000
   45.9967    1.9593    8.1500 C   0  0  0  0  0  0  0  0  0  0  0  0
   45.0927    1.6981    9.1626 C   0  0  0  0  0  0  0  0  0  0  0  0
   44.3478    2.6566    9.7703 N   0  0  0  0  0  0  0  0  0  0  0  0
   44.4886    3.9349    9.3676 C   0  0  0  0  0  0  0  0  0  0  0  0
   43.7188    4.9882    9.9161 N   0  0  0  0  0  0  0  0  0  0  0  0
   43.6114    5.3390   11.3505 C   0  0  0  0  0  0  0  0  0  0  0  0
   42.2898    5.7400   11.9772 C   0  0  0  0  0  0  0  0  0  0  0  0
   42.9326    4.4408   12.3652 C   0  0  0  0  0  0  0  0  0  0  0  0
   44.8498    6.1141   11.8100 C   0  0  0  0  0  0  0  0  0  0  0  0
   45.9750    5.4600   12.3439 C   0  0  0  0  0  0  0  0  0  0  0  0
   47.1141    6.1665   12.7390 C   0  0  0  0  0  0  0  0  0  0  0  0
   47.1551    7.5530   12.6081 C   0  0  0  0  0  0  0  0  0  0  0  0
   46.0505    8.2308   12.0821 C   0  0  0  0  0  0  0  0  0  0  0  0
   44.9195    7.5119   11.6733 C   0  0  0  0  0  0  0  0  0  0  0  0
   46.0512    9.7072   11.9100 C   0  0  0  0  0  0  0  0  0  0  0  0
   47.0959   10.3346   12.0363 O   0  0  0  0  0  0  0  0  0  0  0  0
   44.8355   10.2674   11.5708 N   0  0  0  0  0  0  0  0  0  0  0  0
   44.6617   11.6071   11.4236 C   0  0  0  0  0  0  0  0  0  0  0  0
   45.2229   12.4373   12.2235 N   0  0  0  0  0  0  0  0  0  0  0  0
   45.3717    4.2699    8.3332 C   0  0  0  0  0  0  0  0  0  0  0  0
   46.1484    3.2793    7.7221 C   0  0  0  0  0  0  0  0  0  0  0  0
   46.7660    0.8583    7.5285 C   0  0  0  0  0  0  0  0  0  0  0  0
   46.5683   -0.3136    7.8194 O   0  0  0  0  0  0  0  0  0  0  0  0
   47.7178    1.2200    6.6023 N   0  0  0  0  0  0  0  0  0  0  0  0
   48.2074    2.5787    6.5112 C   0  0  0  0  0  0  0  0  0  0  0  0
   47.0692    3.5953    6.5746 C   0  0  0  0  0  0  0  0  0  0  0  0
   44.9277    0.6877    9.5275 H   0  0  0  0  0  0  0  0  0  0  0  0
   43.7919    5.7984    9.3080 H   0  0  0  0  0  0  0  0  0  0  0  0
   42.2766    6.5340   12.7147 H   0  0  0  0  0  0  0  0  0  0  0  0
   41.3932    5.7079   11.3707 H   0  0  0  0  0  0  0  0  0  0  0  0
   43.3348    4.3698   13.3689 H   0  0  0  0  0  0  0  0  0  0  0  0
   42.4692    3.5219   12.0289 H   0  0  0  0  0  0  0  0  0  0  0  0
   45.9626    4.3759   12.4460 H   0  0  0  0  0  0  0  0  0  0  0  0
   47.9716    5.6286   13.1374 H   0  0  0  0  0  0  0  0  0  0  0  0
   48.0637    8.0800   12.8859 H   0  0  0  0  0  0  0  0  0  0  0  0
   44.0718    8.0410   11.2373 H   0  0  0  0  0  0  0  0  0  0  0  0
   44.0544    9.6637   11.3734 H   0  0  0  0  0  0  0  0  0  0  0  0
   44.0238   11.9327   10.5863 H   0  0  0  0  0  0  0  0  0  0  0  0
   45.7752   11.9633   12.9379 H   0  0  0  0  0  0  0  0  0  0  0  0
   45.4363    5.2996    7.9931 H   0  0  0  0  0  0  0  0  0  0  0  0
   48.3025    0.4527    6.2911 H   0  0  0  0  0  0  0  0  0  0  0  0
   48.7683    2.6784    5.5770 H   0  0  0  0  0  0  0  0  0  0  0  0
   48.9012    2.7272    7.3470 H   0  0  0  0  0  0  0  0  0  0  0  0
   47.4871    4.6029    6.6764 H   0  0  0  0  0  0  0  0  0  0  0  0
   46.4845    3.5611    5.6471 H   0  0  0  0  0  0  0  0  0  0  0  0
  1  2  2  0
  2  3  1  0
  3  4  2  0
  4  5  1  0
  5  6  1  0
  6  7  1  0
  7  8  1  0
  6  9  1  0
  9 10  2  0
 10 11  1  0
 11 12  2  0
 12 13  1  0
 13 14  2  0
 13 15  1  0
 15 16  2  0
 15 17  1  0
 17 18  1  0
 18 19  2  3
  4 20  1  0
 20 21  2  0
  1 22  1  0
 22 23  2  0
 22 24  1  0
 24 25  1  0
 25 26  1  0
  1 21  1  0
  8  6  1  0
  9 14  1  0
 26 21  1  0
  2 27  1  0
  5 28  1  0
  7 29  1  0
  7 30  1  0
  8 31  1  0
  8 32  1  0
 10 33  1  0
 11 34  1  0
 12 35  1  0
 14 36  1  0
 17 37  1  0
 18 38  1  0
 19 39  1  0
 20 40  1  0
 24 41  1  0
 25 42  1  0
 25 43  1  0
 26 44  1  0
 26 45  1  0
M  END
>  <SMILES>  (3) 
C=1(C=NC(NC2(CC2)C=3C=CC=C(C=3)C(=O)NC=N)=CC=14)C(=O)NCC4

>  <SELFIE>  (3) 
[C][Branch2][Ring2][Branch1][C][=N][C][Branch2][Ring1][#Branch2][N][C][Branch1][Branch1][C][C][Ring1][Ring1][C][C][=C][C][=C][Branch1][Ring2][C][=Ring1][=Branch1][C][=Branch1][C][=O][N][C][=N][=C][C][=Ring2][Ring1][Branch1][C][=Branch1][C][=O][N][C][C][Ring1][=Branch1]

>  <docking_score>  (3) 
-9.3170000000000002

$$$$
